Casos/pglib_opf_case300_ieee/datosNodos.csv
bus_i;type;Pd;Qd;Gs;Bs;area;Vm;Va;baseKV;zone;Vmax;Vmin
1;1;90;49;0;0;1;1;0;115;1;1.06;0.94
2;1;56;15;0;0;1;1;0;115;1;1.06;0.94
3;1;20;0;0;0;1;1;0;230;1;1.06;0.94
4;1;0;0;0;0;1;1;0;345;1;1.06;0.94
5;1;353;130;0;0;1;1;0;115;1;1.06;0.94
6;1;120;41;0;0;1;1;0;115;1;1.06;0.94
7;1;0;0;0;0;1;1;0;230;1;1.06;0.94
8;2;63;14;0;0;1;1;0;115;1;1.06;0.94
9;1;96;43;0;0;1;1;0;115;1;1.06;0.94
10;2;153;33;0;0;1;1;0;230;1;1.06;0.94
11;1;83;21;0;0;1;1;0;115;1;1.06;0.94
12;1;0;0;0;0;1;1;0;230;1;1.06;0.94
13;1;58;10;0;0;1;1;0;115;1;1.06;0.94
14;1;160;60;0;0;1;1;0;115;1;1.06;0.94
15;1;126.7;23;0;0;1;1;0;115;1;1.06;0.94
16;1;0;0;0;0;1;1;0;345;1;1.06;0.94
17;1;561;220;0;0;1;1;0;115;1;1.06;0.94
19;1;0;0;0;0;1;1;0;230;1;1.06;0.94
20;2;605;120;0;0;1;1;0;115;1;1.06;0.94
21;1;77;1;0;0;1;1;0;230;1;1.06;0.94
22;1;81;23;0;0;1;1;0;115;1;1.06;0.94
23;1;21;7;0;0;1;1;0;115;1;1.06;0.94
24;1;0;0;0;0;1;1;0;230;1;1.06;0.94
25;1;45;12;0;0;1;1;0;115;1;1.06;0.94
26;1;28;9;0;0;1;1;0;115;1;1.06;0.94
27;1;69;13;0;0;1;1;0;115;1;1.06;0.94
33;1;55;6;0;0;1;1;0;115;1;1.06;0.94
34;1;0;0;0;0;1;1;0;345;1;1.06;0.94
35;1;0;0;0;0;1;1;0;115;1;1.06;0.94
36;1;0;0;0;0;1;1;0;230;1;1.06;0.94
37;1;85;32;0;0;1;1;0;115;1;1.06;0.94
38;1;155;18;0;0;1;1;0;115;1;1.06;0.94
39;1;0;0;0;0;1;1;0;345;1;1.06;0.94
40;1;46;-21;0;0;1;1;0;115;1;1.06;0.94
41;1;86;0;0;0;1;1;0;115;1;1.06;0.94
42;1;0;0;0;0;1;1;0;345;1;1.06;0.94
43;1;39;9;0;0;1;1;0;115;1;1.06;0.94
44;1;195;29;0;0;1;1;0;115;1;1.06;0.94
45;1;0;0;0;0;1;1;0;230;1;1.06;0.94
46;1;0;0;0;0;1;1;0;345;1;1.06;0.94
47;1;58;11.8;0;0;1;1;0;115;1;1.06;0.94
48;1;41;19;0;0;1;1;0;115;1;1.06;0.94
49;1;92;26;0;0;1;1;0;115;1;1.06;0.94
51;1;-5;5;0;0;1;1;0;115;1;1.06;0.94
52;1;61;28;0;0;1;1;0;115;1;1.06;0.94
53;1;69;3;0;0;1;1;0;115;1;1.06;0.94
54;1;10;1;0;0;1;1;0;115;1;1.06;0.94
55;1;22;10;0;0;1;1;0;115;1;1.06;0.94
57;1;98;20;0;0;1;1;0;115;1;1.06;0.94
58;1;14;1;0;0;1;1;0;115;1;1.06;0.94
59;1;218;106;0;0;1;1;0;115;1;1.06;0.94
60;1;0;0;0;0;1;1;0;230;1;1.06;0.94
61;1;227;110;0;0;1;1;0;115;1;1.06;0.94
62;1;0;0;0;0;1;1;0;230;1;1.06;0.94
63;2;70;30;0;0;1;1;0;115;1;1.06;0.94
64;1;0;0;0;0;1;1;0;230;1;1.06;0.94
69;1;0;0;0;0;1;1;0;115;1;1.06;0.94
70;1;56;20;0;0;1;1;0;115;1;1.06;0.94
71;1;116;38;0;0;1;1;0;115;1;1.06;0.94
72;1;57;19;0;0;1;1;0;115;1;1.06;0.94
73;1;224;71;0;0;1;1;0;115;1;1.06;0.94
74;1;0;0;0;0;1;1;0;230;1;1.06;0.94
76;2;208;107;0;0;1;1;0;115;1;1.06;0.94
77;1;74;28;0;0;1;1;0;115;1;1.06;0.94
78;1;0;0;0;0;1;1;0;115;1;1.06;0.94
79;1;48;14;0;0;1;1;0;115;1;1.06;0.94
80;1;28;7;0;0;1;1;0;115;1;1.06;0.94
81;1;0;0;0;0;1;1;0;345;1;1.06;0.94
84;2;37;13;0;0;1;1;0;115;1;1.06;0.94
85;1;0;0;0;0;1;1;0;230;1;1.06;0.94
86;1;0;0;0;0;1;1;0;230;1;1.06;0.94
87;1;0;0;0;0;1;1;0;230;1;1.06;0.94
88;1;0;0;0;0;1;1;0;230;1;1.06;0.94
89;1;44.2;0;0;0;1;1;0;115;1;1.06;0.94
90;1;66;0;0;0;1;1;0;115;1;1.06;0.94
91;2;17.4;0;0;0;1;1;0;115;1;1.06;0.94
92;2;15.8;0;0;0;1;1;0;115;1;1.06;0.94
94;1;60.3;0;0;0;1;1;0;115;1;1.06;0.94
97;1;39.9;0;0;0;1;1;0;115;1;1.06;0.94
98;2;66.7;0;0;0;1;1;0;115;1;1.06;0.94
99;1;83.5;0;0;0;1;1;0;115;1;1.06;0.94
100;1;0;0;0;0;1;1;0;115;1;1.06;0.94
102;1;77.8;0;0;0;1;1;0;115;1;1.06;0.94
103;1;32;0;0;0;1;1;0;115;1;1.06;0.94
104;1;8.6;0;0;0;1;1;0;115;1;1.06;0.94
105;1;49.6;0;0;0;1;1;0;115;1;1.06;0.94
107;1;4.6;0;0;0;1;1;0;115;1;1.06;0.94
108;2;112.1;0;0;0;1;1;0;115;1;1.06;0.94
109;1;30.7;0;0;0;1;1;0;115;1;1.06;0.94
110;1;63;0;0;0;1;1;0;115;1;1.06;0.94
112;1;19.6;0;0;0;1;1;0;115;1;1.06;0.94
113;1;26.2;0;0;0;1;1;0;115;1;1.06;0.94
114;1;18.2;0;0;0;1;1;0;115;1;1.06;0.94
115;1;0;0;0;0;1;1;0;115;2;1.06;0.94
116;1;0;0;0;0;1;1;0;115;2;1.06;0.94
117;1;0;0;0;325;1;1;0;115;2;1.06;0.94
118;1;14.1;650;0;0;1;1;0;115;2;1.06;0.94
119;2;0;0;0;0;1;1;0;115;2;1.06;0.94
120;1;777;215;0;55;1;1;0;115;2;1.06;0.94
121;1;535;55;0;0;1;1;0;115;2;1.06;0.94
122;1;229.1;11.8;0;0;1;1;0;115;2;1.06;0.94
123;1;78;1.4;0;0;1;1;0;115;2;1.06;0.94
124;2;276.4;59.3;0;0;1;1;0;115;2;1.06;0.94
125;2;514.8;82.7;0;0;1;1;0;115;2;1.06;0.94
126;1;57.9;5.1;0;0;1;1;0;115;2;1.06;0.94
127;1;380.8;37;0;0;1;1;0;230;2;1.06;0.94
128;1;0;0;0;0;1;1;0;230;2;1.06;0.94
129;1;0;0;0;0;1;1;0;230;2;1.06;0.94
130;1;0;0;0;0;1;1;0;230;2;1.06;0.94
131;1;0;0;0;0;1;1;0;230;2;1.06;0.94
132;1;0;0;0;0;1;1;0;230;2;1.06;0.94
133;1;0;0;0;0;1;1;0;230;2;1.06;0.94
134;1;0;0;0;0;1;1;0;230;2;1.06;0.94
135;1;169.2;41.6;0;0;1;1;0;230;2;1.06;0.94
136;1;55.2;18.2;0;0;1;1;0;230;2;1.06;0.94
137;1;273.6;99.8;0;0;1;1;0;230;2;1.06;0.94
138;2;1019.2;135.2;0;0;1;1;0;230;2;1.06;0.94
139;1;595;83.3;0;0;1;1;0;115;2;1.06;0.94
140;1;387.7;114.7;0;0;1;1;0;230;2;1.06;0.94
141;2;145;58;0;0;1;1;0;230;2;1.06;0.94
142;1;56.5;24.5;0;0;1;1;0;230;2;1.06;0.94
143;2;89.5;35.5;0;0;1;1;0;230;2;1.06;0.94
144;1;0;0;0;0;1;1;0;230;2;1.06;0.94
145;1;24;14;0;0;1;1;0;230;2;1.06;0.94
146;2;0;0;0;0;1;1;0;230;2;1.06;0.94
147;2;0;0;0;0;1;1;0;230;2;1.06;0.94
148;1;63;25;0;0;1;1;0;230;2;1.06;0.94
149;2;0;0;0;0;1;1;0;230;2;1.06;0.94
150;1;0;0;0;0;1;1;0;230;2;1.06;0.94
151;1;0;0;0;0;1;1;0;230;2;1.06;0.94
152;2;17;9;0;0;1;1;0;230;2;1.06;0.94
153;2;0;0;0;0;1;1;0;230;2;1.06;0.94
154;1;70;5;0;34.5;1;1;0;115;2;1.06;0.94
155;1;200;50;0;0;1;1;0;230;2;1.06;0.94
156;2;75;50;0;0;1;1;0;115;2;1.06;0.94
157;1;123.5;-24.3;0;0;1;1;0;230;2;1.06;0.94
158;1;0;0;0;0;1;1;0;230;2;1.06;0.94
159;1;33;16.5;0;0;1;1;0;230;2;1.06;0.94
160;1;0;0;0;0;1;1;0;230;2;1.06;0.94
161;1;35;15;0;0;1;1;0;230;2;1.06;0.94
162;1;85;24;0;0;1;1;0;230;2;1.06;0.94
163;1;0;0.4;0;0;1;1;0;230;2;1.06;0.94
164;1;0;0;0;-212;1;1;0;230;2;1.06;0.94
165;1;0;0;0;0;1;1;0;230;2;1.06;0.94
166;1;0;0;0;-103;1;1;0;230;2;1.06;0.94
167;1;299.9;95.7;0;0;1;1;0;230;2;1.06;0.94
168;1;0;0;0;0;1;1;0;230;2;1.06;0.94
169;1;0;0;0;0;1;1;0;230;2;1.06;0.94
170;2;481.8;205;0;0;1;1;0;115;2;1.06;0.94
171;2;763.6;291.1;0;0;1;1;0;115;2;1.06;0.94
172;1;26.5;0;0;0;1;1;0;115;2;1.06;0.94
173;1;163.5;43;0;53;1;1;0;115;2;1.06;0.94
174;1;0;0;0;0;1;1;0;115;2;1.06;0.94
175;1;176;83;0;0;1;1;0;115;2;1.06;0.94
176;2;5;4;0;0;1;1;0;115;2;1.06;0.94
177;2;28;12;0;0;1;1;0;115;2;1.06;0.94
178;1;427.4;173.6;0;0;1;1;0;115;2;1.06;0.94
179;1;74;29;0;45;1;1;0;115;2;1.06;0.94
180;1;69.5;49.3;0;0;1;1;0;115;2;1.06;0.94
181;1;73.4;0;0;0;1;1;0;230;2;1.06;0.94
182;1;240.7;89;0;0;1;1;0;230;2;1.06;0.94
183;1;40;4;0;0;1;1;0;115;2;1.06;0.94
184;1;136.8;16.6;0;0;1;1;0;230;2;1.06;0.94
185;2;0;0;0;0;1;1;0;230;2;1.06;0.94
186;2;59.8;24.3;0;0;1;1;0;230;2;1.06;0.94
187;2;59.8;24.3;0;0;1;1;0;230;2;1.06;0.94
188;1;182.6;43.6;0;0;1;1;0;230;2;1.06;0.94
189;1;7;2;0;0;1;1;0;66;3;1.06;0.94
190;2;0;0;0;-150;1;1;0;345;3;1.06;0.94
191;2;489;53;0;0;1;1;0;230;3;1.06;0.94
192;1;800;72;0;0;1;1;0;230;3;1.06;0.94
193;1;0;0;0;0;1;1;0;66;3;1.06;0.94
194;1;0;0;0;0;1;1;0;345;3;1.06;0.94
195;1;0;0;0;0;1;1;0;345;3;1.06;0.94
196;1;10;3;0;0;1;1;0;115;3;1.06;0.94
197;1;43;14;0;0;1;1;0;115;3;1.06;0.94
198;2;64;21;0;0;1;1;0;115;3;1.06;0.94
199;1;35;12;0;0;1;1;0;115;3;1.06;0.94
200;1;27;12;0;0;1;1;0;115;3;1.06;0.94
201;1;41;14;0;0;1;1;0;66;1;1.06;0.94
202;1;38;13;0;0;1;1;0;66;3;1.06;0.94
203;1;42;14;0;0;1;1;0;115;3;1.06;0.94
204;1;72;24;0;0;1;1;0;66;3;1.06;0.94
205;1;0;-5;0;0;1;1;0;66;3;1.06;0.94
206;1;12;2;0;0;1;1;0;66;3;1.06;0.94
207;1;-21;-14.2;0;0;1;1;0;66;1;1.06;0.94
208;1;7;2;0;0;1;1;0;66;3;1.06;0.94
209;1;38;13;0;0;1;1;0;66;3;1.06;0.94
210;1;0;0;0;0;1;1;0;115;3;1.06;0.94
211;1;96;7;0;0;1;1;0;115;3;1.06;0.94
212;1;0;0;0;0;1;1;0;138;3;1.06;0.94
213;2;0;0;0;0;1;1;0;16.5;3;1.06;0.94
214;1;22;16;0;0;1;1;0;138;3;1.06;0.94
215;1;47;26;0;0;1;1;0;138;3;1.06;0.94
216;1;176;105;0;0;1;1;0;138;3;1.06;0.94
217;1;100;75;0;0;1;1;0;138;3;1.06;0.94
218;1;131;96;0;0;1;1;0;138;3;1.06;0.94
219;1;0;0;0;0;1;1;0;345;3;1.06;0.94
220;2;285;100;0;0;1;1;0;138;3;1.06;0.94
221;2;171;70;0;0;1;1;0;138;3;1.06;0.94
222;2;328;188;0;0;1;1;0;20;3;1.06;0.94
223;1;428;232;0;0;1;1;0;138;3;1.06;0.94
224;1;173;99;0;0;1;1;0;230;3;1.06;0.94
225;1;410;40;0;0;1;1;0;230;3;1.06;0.94
226;1;0;0;0;0;1;1;0;230;3;1.06;0.94
227;2;538;369;0;0;1;1;0;27;3;1.06;0.94
228;1;223;148;0;0;1;1;0;138;3;1.06;0.94
229;1;96;46;0;0;1;1;0;138;3;1.06;0.94
230;2;0;0;0;0;1;1;0;20;3;1.06;0.94
231;1;159;107;0;-300;1;1;0;345;3;1.06;0.94
232;1;448;143;0;0;1;1;0;138;3;1.06;0.94
233;2;404;212;0;0;1;1;0;66;3;1.06;0.94
234;1;572;244;0;0;1;1;0;138;3;1.06;0.94
235;1;269;157;0;0;1;1;0;138;3;1.06;0.94
236;2;0;0;0;0;1;1;0;20;3;1.06;0.94
237;1;0;0;0;0;1;1;0;345;3;1.06;0.94
238;2;255;149;0;-150;1;1;0;138;3;1.06;0.94
239;2;0;0;0;0;1;1;0;138;3;1.06;0.94
240;1;0;0;0;-140;1;1;0;230;3;1.06;0.94
241;2;0;0;0;0;1;1;0;20;3;1.06;0.94
242;2;0;0;0;0;1;1;0;138;3;1.06;0.94
243;2;8;3;0;0;1;1;0;66;3;1.06;0.94
244;1;0;0;0;0;1;1;0;66;3;1.06;0.94
245;1;61;30;0;0;1;1;0;66;3;1.06;0.94
246;1;77;33;0;0;1;1;0;66;3;1.06;0.94
247;1;61;30;0;0;1;1;0;66;3;1.06;0.94
248;1;29;14;0;45.6;1;1;0;66;3;1.06;0.94
249;1;29;14;0;0;1;1;0;66;3;1.06;0.94
250;1;-23;-17;0;0;1;1;0;66;3;1.06;0.94
281;1;-33.1;-29.4;0;0;1;1;0;230;3;1.06;0.94
319;1;115.8;-24;0;0;1;1;0;230;1;1.06;0.94
320;1;2.4;-12.6;0;0;1;1;0;115;1;1.06;0.94
322;1;2.4;-3.9;0;0;1;1;0;115;1;1.06;0.94
323;1;-14.9;26.5;0;0;1;1;0;230;1;1.06;0.94
324;1;24.7;-1.2;0;0;1;1;0;115;1;1.06;0.94
526;1;145.3;-34.9;0;0;1;1;0;115;1;1.06;0.94
528;1;28.1;-20.5;0;0;1;1;0;115;1;1.06;0.94
531;1;14;2.5;0;0;1;1;0;115;1;1.06;0.94
552;1;-11.1;-1.4;0;0;1;1;0;115;1;1.06;0.94
562;1;50.5;17.4;0;0;1;1;0;230;1;1.06;0.94
609;1;29.6;0.6;0;0;1;1;0;115;1;1.06;0.94
664;1;-113.7;76.7;0;0;1;1;0;345;3;1.06;0.94
1190;1;100.31;29.17;0;0;1;1;0;86;2;1.06;0.94
1200;1;-100;34.17;0;0;1;1;0;86;2;1.06;0.94
1201;1;0;0;0;0;1;1;0;115;2;1.06;0.94
2040;1;0;0;0;0;1;1;0;115;3;1.06;0.94
7001;2;0;0;0;0;1;1;0;13.8;1;1.06;0.94
7002;2;0;0;0;0;1;1;0;13.8;1;1.06;0.94
7003;2;0;0;0;0;1;1;0;13.8;1;1.06;0.94
7011;2;0;0;0;0;1;1;0;13.8;1;1.06;0.94
7012;2;0;0;0;0;1;1;0;13.8;1;1.06;0.94
7017;2;0;0;0;0;1;1;0;13.8;1;1.06;0.94
7023;2;0;0;0;0;1;1;0;13.8;1;1.06;0.94
7024;2;0;0;0;0;1;1;0;13.8;1;1.06;0.94
7039;2;0;0;0;0;1;1;0;20;1;1.06;0.94
7044;2;0;0;0;0;1;1;0;13.8;1;1.06;0.94
7049;3;0;0;0;0;1;1;0;13.8;1;1.06;0.94
7055;2;0;0;0;0;1;1;0;13.8;1;1.06;0.94
7057;2;0;0;0;0;1;1;0;13.8;1;1.06;0.94
7061;2;0;0;0;0;1;1;0;13.8;1;1.06;0.94
7062;2;0;0;0;0;1;1;0;13.8;1;1.06;0.94
7071;2;0;0;0;0;1;1;0;13.8;1;1.06;0.94
7130;2;0;0;0;0;1;1;0;13.8;2;1.06;0.94
7139;2;0;0;0;0;1;1;0;13.8;2;1.06;0.94
7166;2;0;0;0;0;1;1;0;13.8;2;1.06;0.94
9001;1;0;0;0;0;1;1;0;115;9;1.06;0.94
9002;2;4.2;0;0;0;1;1;0;6.6;9;1.06;0.94
9003;1;2.71;0.94;0.14;2.4;1;1;0;6.6;9;1.06;0.94
9004;1;0.86;0.28;0;0;1;1;0;6.6;9;1.06;0.94
9005;1;0;0;0;0;1;1;0;115;9;1.06;0.94
9006;1;0;0;0;0;1;1;0;6.6;9;1.06;0.94
9007;1;0;0;0;0;1;1;0;6.6;9;1.06;0.94
9012;1;0;0;0;0;1;1;0;6.6;9;1.06;0.94
9021;1;4.75;1.56;0;0;1;1;0;6.6;9;1.06;0.94
9022;1;1.53;0.53;0.08;0;1;1;0;0.6;9;1.06;0.94
9023;1;0;0;0;0;1;1;0;6.6;9;1.06;0.94
9024;1;1.35;0.47;0.07;0;1;1;0;0.6;9;1.06;0.94
9025;1;0.45;0.16;0.02;0;1;1;0;0.6;9;1.06;0.94
9026;1;0.45;0.16;0.02;0;1;1;0;0.6;9;1.06;0.94
9031;1;1.84;0.64;0.1;0;1;1;0;0.6;9;1.06;0.94
9032;1;1.39;0.48;0.07;0;1;1;0;0.6;9;1.06;0.94
9033;1;1.89;0.65;0.1;0;1;1;0;0.6;9;1.06;0.94
9034;1;1.55;0.54;0.08;1.72;1;1;0;0.6;9;1.06;0.94
9035;1;1.66;0.58;0.09;0;1;1;0;0.6;9;1.06;0.94
9036;1;3.03;1;0;0;1;1;0;2.3;9;1.06;0.94
9037;1;1.86;0.64;0.1;0;1;1;0;0.6;9;1.06;0.94
9038;1;2.58;0.89;0.14;0;1;1;0;0.6;9;1.06;0.94
9041;1;1.01;0.35;0.05;0;1;1;0;0.6;9;1.06;0.94
9042;1;0.81;0.28;0.04;0;1;1;0;0.6;9;1.06;0.94
9043;1;1.6;0.52;0;0;1;1;0;2.3;9;1.06;0.94
9044;1;0;0;0;0;1;1;0;6.6;9;1.06;0.94
9051;2;35.81;0;0;0;1;1;0;13.8;9;1.06;0.94
9052;1;30;23;0;0;1;1;0;13.8;9;1.06;0.94
9053;2;26.48;0;0;0;1;1;0;13.8;9;1.06;0.94
9054;2;0;0;0;0;1;1;0;13.8;9;1.06;0.94
9055;2;0;0;0;0;1;1;0;13.8;9;1.06;0.94
9071;1;1.02;0.35;0.05;0;1;1;0;0.6;9;1.06;0.94
9072;1;1.02;0.35;0.05;0;1;1;0;0.6;9;1.06;0.94
9121;1;3.8;1.25;0;0;1;1;0;6.6;9;1.06;0.94
9533;1;1.19;0.41;0.1;0;1;1;0;2.3;9;1.06;0.94
